data_RHO

_audit_creation_method RASPA-1.0
_audit_creation_date 2022-4-23
_audit_author_name 'Pablo_Romero'

_cell_length_a    15.031
_cell_length_b    15.031
_cell_length_c    15.031
_cell_angle_alpha 90.000
_cell_angle_beta  90.000
_cell_angle_gamma 90.000
_cell_volume      3395.968

_symmetry_cell_setting          cubic
_symmetry_space_group_name_Hall 'P 1'
_symmetry_space_group_name_H-M  'P 1'
_symmetry_Int_Tables_number     1
_symmetry_equiv_pos_as_xyz 'x,y,z'

loop_
_atom_site_label
_atom_site_type_symbol
_atom_site_fract_x
_atom_site_fract_y
_atom_site_fract_z
_atom_site_charge
Al1        Al     0.250     0.104     0.396     0.786
O         O     0.211     0.000     0.383    -0.393
O         O     0.165     0.165     0.365    -0.393
Al2        Al     0.896     0.250     0.396     0.786
O         O     0.000     0.211     0.383    -0.393
O         O     0.835     0.165     0.365    -0.393
Al3        Al     0.750     0.896     0.396     0.786
O         O     0.789     0.000     0.383    -0.393
O         O     0.835     0.835     0.365    -0.393
Si        Si     0.104     0.750     0.396     0.786
O         O     0.000     0.789     0.383    -0.393
O         O     0.165     0.835     0.365    -0.393
Si        Si     0.250     0.896     0.604     0.786
O         O     0.211     0.000     0.617    -0.393
O         O     0.165     0.835     0.635    -0.393
Al4        Al     0.104     0.250     0.604     0.786
O         O     0.000     0.211     0.617    -0.393
O         O     0.165     0.165     0.635    -0.393
Al5        Al     0.750     0.104     0.604     0.786
O         O     0.789     0.000     0.617    -0.393
O         O     0.835     0.165     0.635    -0.393
Si        Si     0.896     0.750     0.604     0.786
O         O     0.000     0.789     0.617    -0.393
O         O     0.835     0.835     0.635    -0.393
Si        Si     0.396     0.250     0.104     0.786
O         O     0.383     0.211     0.000    -0.393
O         O     0.365     0.165     0.165    -0.393
Al6        Al     0.750     0.396     0.104     0.786
O         O     0.789     0.383     0.000    -0.393
O         O     0.835     0.365     0.165    -0.393
Si        Si     0.604     0.750     0.104     0.786
O         O     0.617     0.789     0.000    -0.393
O         O     0.635     0.835     0.165    -0.393
Si        Si     0.250     0.604     0.104     0.786
O         O     0.211     0.617     0.000    -0.393
O         O     0.165     0.635     0.165    -0.393
Si        Si     0.396     0.750     0.896     0.786
O         O     0.383     0.789     0.000    -0.393
O         O     0.365     0.835     0.835    -0.393
Si        Si     0.250     0.396     0.896     0.786
O         O     0.211     0.383     0.000    -0.393
O         O     0.165     0.365     0.835    -0.393
Si        Si     0.604     0.250     0.896     0.786
O         O     0.617     0.211     0.000    -0.393
O         O     0.635     0.165     0.835    -0.393
Si        Si     0.750     0.604     0.896     0.786
O         O     0.789     0.617     0.000    -0.393
O         O     0.835     0.635     0.835    -0.393
Al7        Al     0.104     0.396     0.250     0.786
O         O     0.000     0.383     0.211    -0.393
O         O     0.165     0.365     0.165    -0.393
Si        Si     0.104     0.604     0.750     0.786
O         O     0.000     0.617     0.789    -0.393
O         O     0.165     0.635     0.835    -0.393
Si        Si     0.396     0.104     0.750     0.786
O         O     0.383     0.000     0.789    -0.393
O         O     0.365     0.165     0.835    -0.393
Al8        Al     0.896     0.396     0.750     0.786
O         O     0.000     0.383     0.789    -0.393
O         O     0.835     0.365     0.835    -0.393
Si        Si     0.604     0.896     0.750     0.786
O         O     0.617     0.000     0.789    -0.393
O         O     0.635     0.835     0.835    -0.393
Al9        Al     0.896     0.604     0.250     0.786
O         O     0.000     0.617     0.211    -0.393
O         O     0.835     0.635     0.165    -0.393
Si        Si     0.396     0.896     0.250     0.786
O         O     0.383     0.000     0.211    -0.393
O         O     0.365     0.835     0.165    -0.393
Al10        Al     0.604     0.104     0.250     0.786
O         O     0.617     0.000     0.211    -0.393
O         O     0.635     0.165     0.165    -0.393
Al11        Al     0.750     0.896     0.604     0.786
Si        Si     0.104     0.750     0.604     0.786
Si        Si     0.250     0.104     0.604     0.786
Al12        Al     0.896     0.250     0.604     0.786
Al13        Al     0.750     0.104     0.396     0.786
Al14        Al     0.896     0.750     0.396     0.786
Si        Si     0.250     0.896     0.396     0.786
Al15        Al     0.104     0.250     0.396     0.786
Si        Si     0.604     0.750     0.896     0.786
Si        Si     0.250     0.604     0.896     0.786
Si        Si     0.396     0.250     0.896     0.786
Si        Si     0.750     0.396     0.896     0.786
Al16        Al     0.604     0.250     0.104     0.786
Si        Si     0.750     0.604     0.104     0.786
Si        Si     0.396     0.750     0.104     0.786
Si        Si     0.250     0.396     0.104     0.786
Si        Si     0.896     0.604     0.750     0.786
Al17        Al     0.896     0.396     0.250     0.786
Al18        Al     0.604     0.896     0.250     0.786
Si        Si     0.104     0.604     0.250     0.786
Al19        Al     0.396     0.104     0.250     0.786
Si        Si     0.104     0.396     0.750     0.786
Al20        Al     0.604     0.104     0.750     0.786
Si        Si     0.396     0.896     0.750     0.786
O         O     0.711     0.500     0.883    -0.393
O         O     0.665     0.665     0.865    -0.393
O         O     0.500     0.711     0.883    -0.393
O         O     0.335     0.665     0.865    -0.393
O         O     0.289     0.500     0.883    -0.393
O         O     0.335     0.335     0.865    -0.393
O         O     0.500     0.289     0.883    -0.393
O         O     0.665     0.335     0.865    -0.393
O         O     0.711     0.500     0.117    -0.393
O         O     0.665     0.335     0.135    -0.393
O         O     0.500     0.711     0.117    -0.393
O         O     0.665     0.665     0.135    -0.393
O         O     0.289     0.500     0.117    -0.393
O         O     0.335     0.665     0.135    -0.393
O         O     0.500     0.289     0.117    -0.393
O         O     0.335     0.335     0.135    -0.393
O         O     0.883     0.711     0.500    -0.393
O         O     0.865     0.665     0.665    -0.393
O         O     0.289     0.883     0.500    -0.393
O         O     0.335     0.865     0.665    -0.393
O         O     0.117     0.289     0.500    -0.393
O         O     0.135     0.335     0.665    -0.393
O         O     0.711     0.117     0.500    -0.393
O         O     0.665     0.135     0.665    -0.393
O         O     0.883     0.289     0.500    -0.393
O         O     0.865     0.335     0.335    -0.393
O         O     0.711     0.883     0.500    -0.393
O         O     0.665     0.865     0.335    -0.393
O         O     0.117     0.711     0.500    -0.393
O         O     0.135     0.665     0.335    -0.393
O         O     0.289     0.117     0.500    -0.393
O         O     0.335     0.135     0.335    -0.393
O         O     0.500     0.883     0.711    -0.393
O         O     0.665     0.865     0.665    -0.393
O         O     0.500     0.117     0.289    -0.393
O         O     0.665     0.135     0.335    -0.393
O         O     0.883     0.500     0.289    -0.393
O         O     0.865     0.665     0.335    -0.393
O         O     0.500     0.883     0.289    -0.393
O         O     0.335     0.865     0.335    -0.393
O         O     0.117     0.500     0.289    -0.393
O         O     0.135     0.335     0.335    -0.393
O         O     0.500     0.117     0.711    -0.393
O         O     0.335     0.135     0.665    -0.393
O         O     0.883     0.500     0.711    -0.393
O         O     0.865     0.335     0.665    -0.393
O         O     0.117     0.500     0.711    -0.393
O         O     0.135     0.665     0.665    -0.393
