data_RHO

_audit_creation_method RASPA-1.0
_audit_creation_date 2022-4-23
_audit_author_name 'Pablo_Romero'

_cell_length_a    15.031
_cell_length_b    15.031
_cell_length_c    15.031
_cell_angle_alpha 90.000
_cell_angle_beta  90.000
_cell_angle_gamma 90.000
_cell_volume      3395.968

_symmetry_cell_setting          cubic
_symmetry_space_group_name_Hall 'P 1'
_symmetry_space_group_name_H-M  'P 1'
_symmetry_Int_Tables_number     1
_symmetry_equiv_pos_as_xyz 'x,y,z'

loop_
_atom_site_label
_atom_site_type_symbol
_atom_site_fract_x
_atom_site_fract_y
_atom_site_fract_z
_atom_site_charge
Al1        Al     0.250     0.104     0.396     0.786
Si        Si     0.896     0.250     0.396     0.786
Si        Si     0.750     0.896     0.396     0.786
Si        Si     0.104     0.750     0.396     0.786
Al2        Al     0.250     0.896     0.604     0.786
Al3        Al     0.104     0.250     0.604     0.786
Al4        Al     0.750     0.104     0.604     0.786
Si        Si     0.896     0.750     0.604     0.786
Al5        Al     0.396     0.250     0.104     0.786
Si        Si     0.750     0.396     0.104     0.786
Si        Si     0.604     0.750     0.104     0.786
Si        Si     0.250     0.604     0.104     0.786
Al6        Al     0.396     0.750     0.896     0.786
Al7        Al     0.250     0.396     0.896     0.786
Al8        Al     0.604     0.250     0.896     0.786
Si        Si     0.750     0.604     0.896     0.786
Si        Si     0.104     0.396     0.250     0.786
Si        Si     0.104     0.604     0.750     0.786
Al9        Al     0.396     0.104     0.750     0.786
Si        Si     0.896     0.396     0.750     0.786
Al10        Al     0.604     0.896     0.750     0.786
Si        Si     0.896     0.604     0.250     0.786
Si        Si     0.396     0.896     0.250     0.786
Si        Si     0.604     0.104     0.250     0.786
Si        Si     0.750     0.896     0.604     0.786
Si        Si     0.104     0.750     0.604     0.786
Al11        Al     0.250     0.104     0.604     0.786
Si        Si     0.896     0.250     0.604     0.786
Si        Si     0.750     0.104     0.396     0.786
Si        Si     0.896     0.750     0.396     0.786
Al12        Al     0.250     0.896     0.396     0.786
Si        Si     0.104     0.250     0.396     0.786
Si        Si     0.604     0.750     0.896     0.786
Si        Si     0.250     0.604     0.896     0.786
Al13        Al     0.396     0.250     0.896     0.786
Si        Si     0.750     0.396     0.896     0.786
Si        Si     0.604     0.250     0.104     0.786
Si        Si     0.750     0.604     0.104     0.786
Si        Si     0.396     0.750     0.104     0.786
Si        Si     0.250     0.396     0.104     0.786
Si        Si     0.896     0.604     0.750     0.786
Si        Si     0.896     0.396     0.250     0.786
Si        Si     0.604     0.896     0.250     0.786
Si        Si     0.104     0.604     0.250     0.786
Si        Si     0.396     0.104     0.250     0.786
Si        Si     0.104     0.396     0.750     0.786
Al14        Al     0.604     0.104     0.750     0.786
Al15        Al     0.396     0.896     0.750     0.786
